!!!!!! NASA Polynomials Generated by Weerapong Java Program !!!!!!
!  --- Date : 29 Aug 2009 at 09:11:05 (BST) --- 

!ELEM
!C H O Si 
!END

!SPEC
![Si]([O])(C)(C)C
![Si](O)(C)(C)C
![Si](O[Si](C)(C)C)(C)(C)C
!C=C
!C[CH2]
!O(CC)CC
!CCO
!CC
![CH2]
![CH2]O
![CH3]
![Si](OCC)(O)(O)O
!C(C)O[SiH3]
!O=CC
!COC
![Si](OC)(O)(O)[O]
![Si](OC)(O)(O)O
!C
![H]
!O=C
!O
![SiH3]O[SiH3]
![SiH](O)(O)O
![O]
![Si](=O)(OC)OC
![Si@H](=O)(OC)O
![O].C[CH2]
![O]C
![OH]
![Si@@H](=O)([O])O
![Si]([O])(O)(O)O
![SiH3][O]
!O=[Si]O
![Si](C)(C)C
![Si](OC)(O)(O)OC
![Si](OC)(O)O
![Si](O[CH2])(O)(O)O
![Si](O)(O)(O)O
![Si]
![Si](OC)(O)OC
!END

THERMO
     20.00   1000.00   4000.00
[Si]([O])(C)(C)C  290809C   3H   9O   1Si  1G     20.00   4000.00 1000.00    0 1
 3.03280771E+00 5.70785535E-02-5.73390927E-05 4.07143262E-08-1.38978497E-11    2
 7.36594795E+00 1.19750710E+01 1.11745773E+01 2.84251815E-02-1.20891627E-05    3
 2.43663630E-09-1.89655431E-13-2.06246739E+03-2.89118227E+01                   4

[Si](O)(C)(C)C    290809C   3H  10O   1Si  1G     20.00   4000.00 1000.00    0 1
 2.64391944E+00 6.35615135E-02-6.46278457E-05 4.41331371E-08-1.41673039E-11    2
 1.41717293E+01 1.31137569E+01 1.19488976E+01 3.00101935E-02-1.25778958E-05    3
 2.50810821E-09-1.93667008E-13-2.25317278E+03-3.32614184E+01                   4

!Warning! : Species name, [Si](O[Si](C)(C)C)(C)(C)C, is too long for CHEMKIN thermo format.
[Si](O[Si](C)(C)C)290809C   6H  18O   1Si  2G     20.00   4000.00 1000.00    0 1
 4.35566431E+00 1.16465149E-01-1.21226116E-04 9.01674043E-08-3.17188091E-11    2
-4.81343657E+00 1.16622617E+01 2.07689340E+01 5.76446545E-02-2.45892575E-05    3
 4.96743284E-09-3.87322036E-13-4.18695239E+03-7.06657756E+01                   4

C=C               290809C   2H   4    0    0G     20.00   4000.00 1000.00    0 1
 4.35944287E+00-9.91608168E-03 6.10165959E-05-7.23882121E-08 2.81390257E-11    2
-8.32878168E+00 3.71351057E+00 2.56529794E+00 1.31195795E-02-5.54050558E-06    3
 1.11099739E-09-8.61465267E-14-2.73106998E+02 8.91409522E+00                   4

C[CH2]            290809C   2H   5    0    0G     20.00   4000.00 1000.00    0 1
 4.30129497E+00 1.62116844E-03 3.11827776E-05-3.77439685E-08 1.39775477E-11    2
-7.63511835E+00 4.08123761E+00 3.28463413E+00 1.53686392E-02-6.49175221E-06    3
 1.30127473E-09-1.00839245E-13-2.50874759E+02 6.69946772E+00                   4

O(CC)CC           290809C   4H  10O   1    0G     20.00   4000.00 1000.00    0 1
 4.40334759E+00 1.94475117E-02 4.39804023E-05-5.66538822E-08 1.89998962E-11    2
-8.45587120E+00 8.03628654E+00 6.18108451E+00 3.73645034E-02-1.62497716E-05    3
 3.33212027E-09-2.62839893E-13-1.81417608E+03-7.24208643E+00                   4

CCO               290809C   2H   6O   1    0G     20.00   4000.00 1000.00    0 1
 3.72387002E+00 6.09259311E-03 4.03919476E-05-5.30682144E-08 2.03991487E-11    2
 5.00070277E+00 8.00054791E+00 4.21993705E+00 2.03904308E-02-8.65747060E-06    3
 1.74482870E-09-1.35897046E-13-8.87248789E+02 1.65878558E+00                   4

CC                290809C   2H   6    0    0G     20.00   4000.00 1000.00    0 1
 4.17099243E+00-4.82706429E-03 5.51110993E-05-6.20634199E-08 2.24442792E-11    2
-2.87052608E+00 4.92052225E+00 1.70379086E+00 2.01802822E-02-8.63587505E-06    3
 1.74868027E-09-1.36585000E-13-2.26923763E+02 1.32022504E+01                   4

[CH2]             290809C   1H   2    0    0G     20.00   4000.00 1000.00    0 1
 4.04783312E+00-1.32522062E-03 7.91954959E-06-8.70378920E-09 3.38940920E-12    2
-1.39847517E+00 4.32751942E-01 2.70676365E+00 3.84375122E-03-1.49830485E-06    3
 2.79869842E-10-2.04058027E-14 3.31205270E+02 7.09633948E+00                   4

[CH2]O            290809C   1H   3O   1    0G     20.00   4000.00 1000.00    0 1
 3.85092750E+00 8.68584279E-04 2.65062917E-05-3.81752020E-08 1.65367231E-11    2
 1.31567084E+00 5.12184087E+00 4.10169798E+00 8.05373254E-03-3.20380499E-06    3
 6.13198460E-10-4.58492447E-14-3.17845535E+02 2.28178315E+00                   4

[CH3]             290809C   1H   3    0    0G     20.00   4000.00 1000.00    0 1
 3.91642140E+00 7.51441549E-04 9.50318019E-06-1.21442824E-08 5.04040072E-12    2
 1.21370907E+00 1.65128028E+00 2.50805755E+00 6.68158899E-03-2.60375612E-06    3
 4.87253896E-10-3.56328061E-14 3.37745500E+02 8.56351775E+00                   4

[Si](OCC)(O)(O)O  290809C   2H   8O   4Si  1G     20.00   4000.00 1000.00    0 1
 3.26012399E+00 6.48618475E-02-5.03000908E-05 1.34554035E-08 1.72011841E-12    2
 8.16090028E+00 1.31247095E+01 1.63512383E+01 2.51779654E-02-1.04099759E-05    3
 2.05925407E-09-1.58270280E-13-3.31352142E+03-5.33015414E+01                   4

C(C)O[SiH3]       290809C   2H   8O   1Si  1G     20.00   4000.00 1000.00    0 1
 4.68041565E+00 1.52822517E-02 4.48699993E-05-6.49449974E-08 2.53980120E-11    2
-1.77501153E+01 7.06733430E+00 7.90219235E+00 2.72265529E-02-1.20833157E-05    3
 2.51511063E-09-2.00629825E-13-1.96907361E+03-1.47375415E+01                   4

O=CC              290809C   2H   4O   1    0G     20.00   4000.00 1000.00    0 1
 4.12029994E+00 1.98235098E-03 3.33546948E-05-4.06028794E-08 1.49320622E-11    2
-3.81266044E+00 6.38391223E+00 3.85647796E+00 1.54094581E-02-6.71344867E-06    3
 1.37826347E-09-1.08805956E-13-5.83664857E+02 4.58017035E+00                   4

COC               290809C   2H   6O   1    0G     20.00   4000.00 1000.00    0 1
 3.86723844E+00 7.99794778E-03 2.19878144E-05-2.08184927E-08 4.28654564E-12    2
 5.20006980E+00 7.29818784E+00 3.09374024E+00 2.22165891E-02-9.65416688E-06    3
 1.97807114E-09-1.55919082E-13-5.98132117E+02 7.73608893E+00                   4

[Si](OC)(O)(O)[O] 290809C   1H   5O   4Si  1G     20.00   4000.00 1000.00    0 1
 3.88544858E+00 5.28680042E-02-6.17133338E-05 4.20119830E-08-1.25080074E-11    2
-6.86906957E-01 1.06835776E+01 1.39972413E+01 1.60723684E-02-6.65109641E-06    3
 1.31698888E-09-1.01317544E-13-2.37778219E+03-3.94466437E+01                   4

[Si](OC)(O)(O)O   290809C   1H   6O   4Si  1G     20.00   4000.00 1000.00    0 1
 2.87347658E+00 6.31810621E-02-7.76919150E-05 5.41790836E-08-1.60493831E-11    2
 1.25112443E+01 1.31924656E+01 1.48389789E+01 1.75523498E-02-7.08329820E-06    3
 1.37532587E-09-1.04206612E-13-2.66470653E+03-4.55321059E+01                   4

C                 290809C   1H   4    0    0G     20.00   4000.00 1000.00    0 1
 4.24337761E+00-5.17267373E-03 2.31025886E-05-1.75895317E-08 3.87514053E-12    2
-2.18035161E+00 1.35671520E+00 7.12068226E-01 1.18456970E-02-4.94222703E-06    3
 9.80515244E-10-7.53403759E-14 5.14105494E+02 1.75437382E+01                   4

[H]               290809H   1    0    0    0G     20.00   4000.00 1000.00    0 1
 2.50000000E+00 1.85912619E-14-1.20270261E-16 1.45504482E-19-5.64825923E-23    2
-1.81363543E-09-1.15317585E+00 2.50000000E+00 1.43409563E-13-4.07939273E-17    3
 1.15577746E-20-1.19316080E-24-6.75661239E-09-1.15317585E+00                   4

O=C               290809C   1H   2O   1    0G     20.00   4000.00 1000.00    0 1
 4.18474188E+00-4.04330271E-03 1.88785395E-05-1.55534218E-08 3.86178135E-12    2
-1.91324055E+00 3.63168962E+00 2.21034816E+00 8.02393183E-03-3.52363682E-06    3
 7.27210848E-10-5.76148792E-14 1.18967662E+02 1.19520854E+01                   4

O                 290809H   2O   1    0    0G     20.00   4000.00 1000.00    0 1
 4.03351682E+00-6.44011718E-04 2.37547524E-06-5.98556485E-10-2.95217329E-13    2
-6.13403912E-02-2.03143215E-01 2.74628601E+00 2.79002062E-03-7.50135202E-07    3
 8.63666495E-11-2.94492454E-15 3.81854864E+02 6.51416596E+00                   4

[SiH3]O[SiH3]     290809H   6O   1Si  2    0G     20.00   4000.00 1000.00    0 1
 6.69222984E+00-6.20518835E-03 9.81830024E-05-1.36818520E-07 5.86352377E-11    2
-4.14091292E+01 3.32227206E+00 9.41067331E+00 1.73256510E-02-8.02679846E-06    3
 1.72168602E-09-1.40341880E-13-1.99006420E+03-1.73269333E+01                   4

[SiH](O)(O)O      290809H   4O   3Si  1    0G     20.00   4000.00 1000.00    0 1
 2.54603044E+00 3.66871869E-02-2.08514241E-05-1.49123656E-08 1.44462627E-11    2
 1.73420336E+01 1.32201617E+01 1.19035308E+01 8.52014943E-03-3.20727979E-06    3
 5.88262769E-10-4.25728939E-14-2.11104173E+03-3.36006192E+01                   4

[O]               290809O   1    0    0    0G     20.00   4000.00 1000.00    0 1
 2.50000000E+00 1.86172827E-14-1.20182170E-16 1.45560730E-19-5.65375222E-23    2
-1.81637011E-09 2.99353859E+00 2.50000000E+00 1.43329792E-13-4.07126386E-17    3
 1.15453734E-20-1.19200038E-24-6.78374035E-09 2.99353859E+00                   4

[Si](=O)(OC)OC    290809C   2H   6O   3Si  1G     20.00   4000.00 1000.00    0 1
 4.62162102E+00 4.57110660E-02-6.50828542E-05 7.49117948E-08-3.46755386E-11    2
-1.42703134E+01 7.90083501E+00 1.02233291E+01 2.42578890E-02-1.05975591E-05    3
 2.18113669E-09-1.72562405E-13-1.77542921E+03-2.10023450E+01                   4

[Si@H](=O)(OC)O   290809C   1H   4O   3Si  1G     20.00   4000.00 1000.00    0 1
 3.63691984E+00 3.51414587E-02-3.57981945E-05 2.55450120E-08-9.00559434E-12    2
 2.66059262E+00 1.05902010E+01 1.00008080E+01 1.47566169E-02-6.29131775E-06    3
 1.27349653E-09-9.95915529E-14-1.71976783E+03-2.18856697E+01                   4

[O].C[CH2]        290809C   2H   5O   1    0G     20.00   4000.00 1000.00    0 1
 6.24736644E+00 1.18986923E-02-1.24241377E-06 2.90345407E-09-3.57968238E-12    2
-4.15184394E+01 9.32854420E-01 6.27457901E+00 1.53932145E-02-6.50687893E-06    3
 1.30503120E-09-1.01173443E-13-3.56891238E+02-4.60787901E-01                   4

[O]C              290809C   1H   3O   1    0G     20.00   4000.00 1000.00    0 1
 4.19197106E+00-5.98572970E-03 4.21077204E-05-5.02958971E-08 1.95790806E-11    2
-4.73100645E+00 4.26916223E+00 3.01826024E+00 1.01117568E-02-4.38796282E-06    3
 8.97854585E-10-7.06873694E-14-2.47704699E+02 7.38078506E+00                   4

[OH]              290809H   1O   1    0    0G     20.00   4000.00 1000.00    0 1
 3.49597467E+00 8.25044944E-05-4.02736717E-07 5.90939966E-10-1.29936344E-13    2
-1.50189651E-02 8.02245175E-01 2.90047541E+00 8.72036662E-04-1.44934714E-07    3
-5.14601689E-12 2.43985866E-15 2.37409986E+02 4.16326467E+00                   4

[Si@@H](=O)([O])O 290809H   1O   3Si  1    0G     20.00   4000.00 1000.00    0 1
 2.94382812E+00 2.63057959E-02-3.04836721E-05 1.39815364E-08-1.16423891E-12    2
 1.59932368E+01 1.19538816E+01 9.29338129E+00 3.36677318E-03-1.36011171E-06    3
 2.65673102E-10-2.02915433E-14-1.37183375E+03-1.92423547E+01                   4

[Si]([O])(O)(O)O  290809H   3O   4Si  1    0G     20.00   4000.00 1000.00    0 1
 2.08846287E+00 5.30843328E-02-6.84189835E-05 3.82949358E-08-6.57316339E-12    2
 2.71545628E+01 1.50612054E+01 1.38857438E+01 6.41423916E-03-2.26270767E-06    3
 3.90410818E-10-2.67297072E-14-2.31977415E+03-4.18363529E+01                   4

[SiH3][O]         290809H   3O   1Si  1    0G     20.00   4000.00 1000.00    0 1
 3.80257415E+00-3.49487507E-04 4.47047539E-05-6.76989248E-08 3.04825140E-11    2
-2.13141881E+00 7.01037012E+00 5.72713815E+00 8.06149235E-03-3.72765410E-06    3
 7.98426812E-10-6.50142823E-14-9.96884366E+02-5.65050329E+00                   4

O=[Si]O           290809H   1O   2Si  1    0G     20.00   4000.00 1000.00    0 1
 3.47541117E+00 1.09796421E-02-5.72705900E-07-1.38688526E-08 8.74925271E-12    2
 6.78566340E+00 9.10665541E+00 6.81079522E+00 2.75892129E-03-1.06420650E-06    3
 1.99622854E-10-1.47361532E-14-8.17250800E+02-7.95827352E+00                   4

[Si](C)(C)C       290809C   3H   9Si  1    0G     20.00   4000.00 1000.00    0 1
 3.44990426E+00 4.06438222E-02-2.26429040E-05 6.60079993E-09-1.27264727E-12    2
 8.47004750E-01 1.02963491E+01 8.57484171E+00 2.80204850E-02-1.19103398E-05    3
 2.39914044E-09-1.86629672E-13-1.55458879E+03-1.67198661E+01                   4

[Si](OC)(O)(O)OC  290809C   2H   8O   4Si  1G     20.00   4000.00 1000.00    0 1
 4.84421242E+00 6.44735714E-02-7.95281177E-05 7.09247156E-08-2.81733868E-11    2
-2.16637451E+01 7.79941974E+00 1.49818744E+01 2.72243362E-02-1.14911026E-05    3
 2.30777010E-09-1.79361918E-13-2.66216512E+03-4.31497145E+01                   4

[Si](OC)(O)O      290809C   1H   5O   3Si  1G     20.00   4000.00 1000.00    0 1
 3.88236470E+00 4.58201356E-02-5.90755840E-05 4.82889219E-08-1.72175967E-11    2
-4.43191004E+00 9.68323369E+00 1.17449851E+01 1.51923465E-02-6.22485273E-06    3
 1.22242460E-09-9.34081368E-14-1.82945697E+03-2.90301313E+01                   4

!Warning! : Species name, [Si](O[CH2])(O)(O)O, is too long for CHEMKIN thermo format.
[Si](O[CH2])(O)(O)290809C   1H   5O   4Si  1G     20.00   4000.00 1000.00    0 1
 1.96859133E+00 7.37659326E-02-1.05724663E-04 7.71864436E-08-2.21915950E-11    2
 2.82345347E+01 1.57512070E+01 1.63729538E+01 1.27100397E-02-4.90153821E-06    3
 9.16604667E-10-6.73594410E-14-2.81509400E+03-5.32197248E+01                   4

[Si](O)(O)(O)O    290809H   4O   4Si  1    0G     20.00   4000.00 1000.00    0 1
 1.70380536E+00 5.65530818E-02-6.22815816E-05 2.26068578E-08 1.90561236E-12    2
 3.31969076E+01 1.62924123E+01 1.47259287E+01 7.87276914E-03-2.67890065E-06    3
 4.44531311E-10-2.92345527E-14-2.58732916E+03-4.69003345E+01                   4

[Si]              290809Si  1    0    0    0G     20.00   4000.00 1000.00    0 1
 2.50000000E+00 1.86103032E-14-1.20227751E-16 1.45484319E-19-5.64598226E-23    2
-1.81516685E-09 3.83220261E+00 2.50000000E+00 1.43326323E-13-4.07583784E-17    3
 1.15569539E-20-1.19189941E-24-6.74304841E-09 3.83220261E+00                   4

[Si](OC)(O)OC     290809C   2H   7O   3Si  1G     20.00   4000.00 1000.00    0 1
 5.15431842E+00 4.98887249E-02-6.49790187E-05 6.72731179E-08-2.96044905E-11    2
-2.61772166E+01 6.46331822E+00 1.18267339E+01 2.49128355E-02-1.06507572E-05    3
 2.15828210E-09-1.68822257E-13-1.93264803E+03-2.74983776E+01                   4

END
! NASA Polynomials : Total = 40, Success = 40, Skipped = 0, Warning = 2
